V1 IN 0 DC 0

X1 IN N001 TUNNELDIODE

VI N001 OUT

R1 OUT 0 1

.PROBE

.SUBCKT TUNNELDIODE IN OUT

GTD OUT 0 VALUE = (IF (V(IN) <0.3, 0.15*V(IN), IF (V(IN) <0.5, -0.05* (V(IN)-0.3)+0.045, 0.2* (V(IN)-0.5)+0.035)))
.ENDS TUNNELDIODE

.DC V1 0 0.8 0.01

.END